LTspice 24.0.12 for Windows
Circuit: * H:\Alex Eagles\Electroincs\Overvoltage\NPN\bjt npn.asc
Start Time: Sat Aug 17 23:05:57 2024
Warning: Multiple definitions of model "2scr375p" Type: BJT
Warning: Multiple definitions of model "bc857b" Type: BJT
Warning: Multiple definitions of model "bc847c" Type: BJT
Warning: Multiple definitions of model "bc847b" Type: BJT
Error on line 3 : v1 n001 0 v
	 Unknown parameter "v"
solver = Normal
Maximum thread count: 12
tnom = 27
temp = 27
method = modified trap
v1: Missing value, assumed 0V @ DC
.OP point found by inspection.
Total elapsed time: 0.202 seconds.

